
---------- Begin Simulation Statistics ----------
sim_seconds                                  0.000618                       # Number of seconds simulated
sim_ticks                                   617670500                       # Number of ticks simulated
final_tick                                  617670500                       # Number of ticks from beginning of simulation (restored from checkpoints and never reset)
sim_freq                                 1000000000000                       # Frequency of simulated ticks
host_inst_rate                                  28016                       # Simulator instruction rate (inst/s)
host_op_rate                                    55942                       # Simulator op (including micro ops) rate (op/s)
host_tick_rate                              290085672                       # Simulator tick rate (ticks/s)
host_mem_usage                                1430636                       # Number of bytes of host memory used
host_seconds                                     2.13                       # Real time elapsed on the host
sim_insts                                       59652                       # Number of instructions simulated
sim_ops                                        119114                       # Number of ops (including micro ops) simulated
system.voltage_domain.voltage                       1                       # Voltage in Volts
system.clk_domain.clock                          1000                       # Clock period in ticks
system.mem_ctrls.pwrStateResidencyTicks::UNDEFINED    617670500                       # Cumulative time (in ticks) in various power states
system.mem_ctrls.bytes_read::dir_cntrl0         92864                       # Number of bytes read from this memory
system.mem_ctrls.bytes_read::total              92864                       # Number of bytes read from this memory
system.mem_ctrls.num_reads::dir_cntrl0           1451                       # Number of read requests responded to by this memory
system.mem_ctrls.num_reads::total                1451                       # Number of read requests responded to by this memory
system.mem_ctrls.bw_read::dir_cntrl0        150345532                       # Total read bandwidth from this memory (bytes/s)
system.mem_ctrls.bw_read::total             150345532                       # Total read bandwidth from this memory (bytes/s)
system.mem_ctrls.bw_total::dir_cntrl0       150345532                       # Total bandwidth to/from this memory (bytes/s)
system.mem_ctrls.bw_total::total            150345532                       # Total bandwidth to/from this memory (bytes/s)
system.mem_ctrls.readReqs                        1451                       # Number of read requests accepted
system.mem_ctrls.writeReqs                          0                       # Number of write requests accepted
system.mem_ctrls.readBursts                      1451                       # Number of DRAM read bursts, including those serviced by the write queue
system.mem_ctrls.writeBursts                        0                       # Number of DRAM write bursts, including those merged in the write queue
system.mem_ctrls.bytesReadDRAM                  92864                       # Total number of bytes read from DRAM
system.mem_ctrls.bytesReadWrQ                       0                       # Total number of bytes read from write queue
system.mem_ctrls.bytesWritten                       0                       # Total number of bytes written to DRAM
system.mem_ctrls.bytesReadSys                   92864                       # Total read bytes from the system interface side
system.mem_ctrls.bytesWrittenSys                    0                       # Total written bytes from the system interface side
system.mem_ctrls.servicedByWrQ                      0                       # Number of DRAM read bursts serviced by the write queue
system.mem_ctrls.mergedWrBursts                     0                       # Number of DRAM write bursts merged with an existing one
system.mem_ctrls.neitherReadNorWriteReqs            0                       # Number of requests that are neither read nor write
system.mem_ctrls.perBankRdBursts::0               111                       # Per bank write bursts
system.mem_ctrls.perBankRdBursts::1                72                       # Per bank write bursts
system.mem_ctrls.perBankRdBursts::2               111                       # Per bank write bursts
system.mem_ctrls.perBankRdBursts::3               235                       # Per bank write bursts
system.mem_ctrls.perBankRdBursts::4               107                       # Per bank write bursts
system.mem_ctrls.perBankRdBursts::5                72                       # Per bank write bursts
system.mem_ctrls.perBankRdBursts::6                54                       # Per bank write bursts
system.mem_ctrls.perBankRdBursts::7               156                       # Per bank write bursts
system.mem_ctrls.perBankRdBursts::8                58                       # Per bank write bursts
system.mem_ctrls.perBankRdBursts::9               141                       # Per bank write bursts
system.mem_ctrls.perBankRdBursts::10               50                       # Per bank write bursts
system.mem_ctrls.perBankRdBursts::11               65                       # Per bank write bursts
system.mem_ctrls.perBankRdBursts::12               53                       # Per bank write bursts
system.mem_ctrls.perBankRdBursts::13               28                       # Per bank write bursts
system.mem_ctrls.perBankRdBursts::14               56                       # Per bank write bursts
system.mem_ctrls.perBankRdBursts::15               82                       # Per bank write bursts
system.mem_ctrls.perBankWrBursts::0                 0                       # Per bank write bursts
system.mem_ctrls.perBankWrBursts::1                 0                       # Per bank write bursts
system.mem_ctrls.perBankWrBursts::2                 0                       # Per bank write bursts
system.mem_ctrls.perBankWrBursts::3                 0                       # Per bank write bursts
system.mem_ctrls.perBankWrBursts::4                 0                       # Per bank write bursts
system.mem_ctrls.perBankWrBursts::5                 0                       # Per bank write bursts
system.mem_ctrls.perBankWrBursts::6                 0                       # Per bank write bursts
system.mem_ctrls.perBankWrBursts::7                 0                       # Per bank write bursts
system.mem_ctrls.perBankWrBursts::8                 0                       # Per bank write bursts
system.mem_ctrls.perBankWrBursts::9                 0                       # Per bank write bursts
system.mem_ctrls.perBankWrBursts::10                0                       # Per bank write bursts
system.mem_ctrls.perBankWrBursts::11                0                       # Per bank write bursts
system.mem_ctrls.perBankWrBursts::12                0                       # Per bank write bursts
system.mem_ctrls.perBankWrBursts::13                0                       # Per bank write bursts
system.mem_ctrls.perBankWrBursts::14                0                       # Per bank write bursts
system.mem_ctrls.perBankWrBursts::15                0                       # Per bank write bursts
system.mem_ctrls.numRdRetry                         0                       # Number of times read queue was full causing retry
system.mem_ctrls.numWrRetry                         0                       # Number of times write queue was full causing retry
system.mem_ctrls.totGap                     617458000                       # Total gap between requests
system.mem_ctrls.readPktSize::0                     0                       # Read request sizes (log2)
system.mem_ctrls.readPktSize::1                     0                       # Read request sizes (log2)
system.mem_ctrls.readPktSize::2                     0                       # Read request sizes (log2)
system.mem_ctrls.readPktSize::3                     0                       # Read request sizes (log2)
system.mem_ctrls.readPktSize::4                     0                       # Read request sizes (log2)
system.mem_ctrls.readPktSize::5                     0                       # Read request sizes (log2)
system.mem_ctrls.readPktSize::6                  1451                       # Read request sizes (log2)
system.mem_ctrls.writePktSize::0                    0                       # Write request sizes (log2)
system.mem_ctrls.writePktSize::1                    0                       # Write request sizes (log2)
system.mem_ctrls.writePktSize::2                    0                       # Write request sizes (log2)
system.mem_ctrls.writePktSize::3                    0                       # Write request sizes (log2)
system.mem_ctrls.writePktSize::4                    0                       # Write request sizes (log2)
system.mem_ctrls.writePktSize::5                    0                       # Write request sizes (log2)
system.mem_ctrls.writePktSize::6                    0                       # Write request sizes (log2)
system.mem_ctrls.rdQLenPdf::0                    1444                       # What read queue length does an incoming req see
system.mem_ctrls.rdQLenPdf::1                       2                       # What read queue length does an incoming req see
system.mem_ctrls.rdQLenPdf::2                       3                       # What read queue length does an incoming req see
system.mem_ctrls.rdQLenPdf::3                       1                       # What read queue length does an incoming req see
system.mem_ctrls.rdQLenPdf::4                       1                       # What read queue length does an incoming req see
system.mem_ctrls.rdQLenPdf::5                       0                       # What read queue length does an incoming req see
system.mem_ctrls.rdQLenPdf::6                       0                       # What read queue length does an incoming req see
system.mem_ctrls.rdQLenPdf::7                       0                       # What read queue length does an incoming req see
system.mem_ctrls.rdQLenPdf::8                       0                       # What read queue length does an incoming req see
system.mem_ctrls.rdQLenPdf::9                       0                       # What read queue length does an incoming req see
system.mem_ctrls.rdQLenPdf::10                      0                       # What read queue length does an incoming req see
system.mem_ctrls.rdQLenPdf::11                      0                       # What read queue length does an incoming req see
system.mem_ctrls.rdQLenPdf::12                      0                       # What read queue length does an incoming req see
system.mem_ctrls.rdQLenPdf::13                      0                       # What read queue length does an incoming req see
system.mem_ctrls.rdQLenPdf::14                      0                       # What read queue length does an incoming req see
system.mem_ctrls.rdQLenPdf::15                      0                       # What read queue length does an incoming req see
system.mem_ctrls.rdQLenPdf::16                      0                       # What read queue length does an incoming req see
system.mem_ctrls.rdQLenPdf::17                      0                       # What read queue length does an incoming req see
system.mem_ctrls.rdQLenPdf::18                      0                       # What read queue length does an incoming req see
system.mem_ctrls.rdQLenPdf::19                      0                       # What read queue length does an incoming req see
system.mem_ctrls.rdQLenPdf::20                      0                       # What read queue length does an incoming req see
system.mem_ctrls.rdQLenPdf::21                      0                       # What read queue length does an incoming req see
system.mem_ctrls.rdQLenPdf::22                      0                       # What read queue length does an incoming req see
system.mem_ctrls.rdQLenPdf::23                      0                       # What read queue length does an incoming req see
system.mem_ctrls.rdQLenPdf::24                      0                       # What read queue length does an incoming req see
system.mem_ctrls.rdQLenPdf::25                      0                       # What read queue length does an incoming req see
system.mem_ctrls.rdQLenPdf::26                      0                       # What read queue length does an incoming req see
system.mem_ctrls.rdQLenPdf::27                      0                       # What read queue length does an incoming req see
system.mem_ctrls.rdQLenPdf::28                      0                       # What read queue length does an incoming req see
system.mem_ctrls.rdQLenPdf::29                      0                       # What read queue length does an incoming req see
system.mem_ctrls.rdQLenPdf::30                      0                       # What read queue length does an incoming req see
system.mem_ctrls.rdQLenPdf::31                      0                       # What read queue length does an incoming req see
system.mem_ctrls.wrQLenPdf::0                       0                       # What write queue length does an incoming req see
system.mem_ctrls.wrQLenPdf::1                       0                       # What write queue length does an incoming req see
system.mem_ctrls.wrQLenPdf::2                       0                       # What write queue length does an incoming req see
system.mem_ctrls.wrQLenPdf::3                       0                       # What write queue length does an incoming req see
system.mem_ctrls.wrQLenPdf::4                       0                       # What write queue length does an incoming req see
system.mem_ctrls.wrQLenPdf::5                       0                       # What write queue length does an incoming req see
system.mem_ctrls.wrQLenPdf::6                       0                       # What write queue length does an incoming req see
system.mem_ctrls.wrQLenPdf::7                       0                       # What write queue length does an incoming req see
system.mem_ctrls.wrQLenPdf::8                       0                       # What write queue length does an incoming req see
system.mem_ctrls.wrQLenPdf::9                       0                       # What write queue length does an incoming req see
system.mem_ctrls.wrQLenPdf::10                      0                       # What write queue length does an incoming req see
system.mem_ctrls.wrQLenPdf::11                      0                       # What write queue length does an incoming req see
system.mem_ctrls.wrQLenPdf::12                      0                       # What write queue length does an incoming req see
system.mem_ctrls.wrQLenPdf::13                      0                       # What write queue length does an incoming req see
system.mem_ctrls.wrQLenPdf::14                      0                       # What write queue length does an incoming req see
system.mem_ctrls.wrQLenPdf::15                      0                       # What write queue length does an incoming req see
system.mem_ctrls.wrQLenPdf::16                      0                       # What write queue length does an incoming req see
system.mem_ctrls.wrQLenPdf::17                      0                       # What write queue length does an incoming req see
system.mem_ctrls.wrQLenPdf::18                      0                       # What write queue length does an incoming req see
system.mem_ctrls.wrQLenPdf::19                      0                       # What write queue length does an incoming req see
system.mem_ctrls.wrQLenPdf::20                      0                       # What write queue length does an incoming req see
system.mem_ctrls.wrQLenPdf::21                      0                       # What write queue length does an incoming req see
system.mem_ctrls.wrQLenPdf::22                      0                       # What write queue length does an incoming req see
system.mem_ctrls.wrQLenPdf::23                      0                       # What write queue length does an incoming req see
system.mem_ctrls.wrQLenPdf::24                      0                       # What write queue length does an incoming req see
system.mem_ctrls.wrQLenPdf::25                      0                       # What write queue length does an incoming req see
system.mem_ctrls.wrQLenPdf::26                      0                       # What write queue length does an incoming req see
system.mem_ctrls.wrQLenPdf::27                      0                       # What write queue length does an incoming req see
system.mem_ctrls.wrQLenPdf::28                      0                       # What write queue length does an incoming req see
system.mem_ctrls.wrQLenPdf::29                      0                       # What write queue length does an incoming req see
system.mem_ctrls.wrQLenPdf::30                      0                       # What write queue length does an incoming req see
system.mem_ctrls.wrQLenPdf::31                      0                       # What write queue length does an incoming req see
system.mem_ctrls.wrQLenPdf::32                      0                       # What write queue length does an incoming req see
system.mem_ctrls.wrQLenPdf::33                      0                       # What write queue length does an incoming req see
system.mem_ctrls.wrQLenPdf::34                      0                       # What write queue length does an incoming req see
system.mem_ctrls.wrQLenPdf::35                      0                       # What write queue length does an incoming req see
system.mem_ctrls.wrQLenPdf::36                      0                       # What write queue length does an incoming req see
system.mem_ctrls.wrQLenPdf::37                      0                       # What write queue length does an incoming req see
system.mem_ctrls.wrQLenPdf::38                      0                       # What write queue length does an incoming req see
system.mem_ctrls.wrQLenPdf::39                      0                       # What write queue length does an incoming req see
system.mem_ctrls.wrQLenPdf::40                      0                       # What write queue length does an incoming req see
system.mem_ctrls.wrQLenPdf::41                      0                       # What write queue length does an incoming req see
system.mem_ctrls.wrQLenPdf::42                      0                       # What write queue length does an incoming req see
system.mem_ctrls.wrQLenPdf::43                      0                       # What write queue length does an incoming req see
system.mem_ctrls.wrQLenPdf::44                      0                       # What write queue length does an incoming req see
system.mem_ctrls.wrQLenPdf::45                      0                       # What write queue length does an incoming req see
system.mem_ctrls.wrQLenPdf::46                      0                       # What write queue length does an incoming req see
system.mem_ctrls.wrQLenPdf::47                      0                       # What write queue length does an incoming req see
system.mem_ctrls.wrQLenPdf::48                      0                       # What write queue length does an incoming req see
system.mem_ctrls.wrQLenPdf::49                      0                       # What write queue length does an incoming req see
system.mem_ctrls.wrQLenPdf::50                      0                       # What write queue length does an incoming req see
system.mem_ctrls.wrQLenPdf::51                      0                       # What write queue length does an incoming req see
system.mem_ctrls.wrQLenPdf::52                      0                       # What write queue length does an incoming req see
system.mem_ctrls.wrQLenPdf::53                      0                       # What write queue length does an incoming req see
system.mem_ctrls.wrQLenPdf::54                      0                       # What write queue length does an incoming req see
system.mem_ctrls.wrQLenPdf::55                      0                       # What write queue length does an incoming req see
system.mem_ctrls.wrQLenPdf::56                      0                       # What write queue length does an incoming req see
system.mem_ctrls.wrQLenPdf::57                      0                       # What write queue length does an incoming req see
system.mem_ctrls.wrQLenPdf::58                      0                       # What write queue length does an incoming req see
system.mem_ctrls.wrQLenPdf::59                      0                       # What write queue length does an incoming req see
system.mem_ctrls.wrQLenPdf::60                      0                       # What write queue length does an incoming req see
system.mem_ctrls.wrQLenPdf::61                      0                       # What write queue length does an incoming req see
system.mem_ctrls.wrQLenPdf::62                      0                       # What write queue length does an incoming req see
system.mem_ctrls.wrQLenPdf::63                      0                       # What write queue length does an incoming req see
system.mem_ctrls.bytesPerActivate::samples          490                       # Bytes accessed per row activation
system.mem_ctrls.bytesPerActivate::mean    188.342857                       # Bytes accessed per row activation
system.mem_ctrls.bytesPerActivate::gmean   136.364055                       # Bytes accessed per row activation
system.mem_ctrls.bytesPerActivate::stdev   179.401814                       # Bytes accessed per row activation
system.mem_ctrls.bytesPerActivate::0-127          198     40.41%     40.41% # Bytes accessed per row activation
system.mem_ctrls.bytesPerActivate::128-255          158     32.24%     72.65% # Bytes accessed per row activation
system.mem_ctrls.bytesPerActivate::256-383           72     14.69%     87.35% # Bytes accessed per row activation
system.mem_ctrls.bytesPerActivate::384-511           24      4.90%     92.24% # Bytes accessed per row activation
system.mem_ctrls.bytesPerActivate::512-639           17      3.47%     95.71% # Bytes accessed per row activation
system.mem_ctrls.bytesPerActivate::640-767            8      1.63%     97.35% # Bytes accessed per row activation
system.mem_ctrls.bytesPerActivate::768-895            7      1.43%     98.78% # Bytes accessed per row activation
system.mem_ctrls.bytesPerActivate::896-1023            2      0.41%     99.18% # Bytes accessed per row activation
system.mem_ctrls.bytesPerActivate::1024-1151            4      0.82%    100.00% # Bytes accessed per row activation
system.mem_ctrls.bytesPerActivate::total          490                       # Bytes accessed per row activation
system.mem_ctrls.totQLat                     30721250                       # Total ticks spent queuing
system.mem_ctrls.totMemAccLat                57927500                       # Total ticks spent from burst creation until serviced by the DRAM
system.mem_ctrls.totBusLat                    7255000                       # Total ticks spent in databus transfers
system.mem_ctrls.avgQLat                     21172.47                       # Average queueing delay per DRAM burst
system.mem_ctrls.avgBusLat                    5000.00                       # Average bus latency per DRAM burst
system.mem_ctrls.avgMemAccLat                39922.47                       # Average memory access latency per DRAM burst
system.mem_ctrls.avgRdBW                       150.35                       # Average DRAM read bandwidth in MiByte/s
system.mem_ctrls.avgWrBW                         0.00                       # Average achieved write bandwidth in MiByte/s
system.mem_ctrls.avgRdBWSys                    150.35                       # Average system read bandwidth in MiByte/s
system.mem_ctrls.avgWrBWSys                      0.00                       # Average system write bandwidth in MiByte/s
system.mem_ctrls.peakBW                      12800.00                       # Theoretical peak bandwidth in MiByte/s
system.mem_ctrls.busUtil                         1.17                       # Data bus utilization in percentage
system.mem_ctrls.busUtilRead                     1.17                       # Data bus utilization in percentage for reads
system.mem_ctrls.busUtilWrite                    0.00                       # Data bus utilization in percentage for writes
system.mem_ctrls.avgRdQLen                       1.01                       # Average read queue length when enqueuing
system.mem_ctrls.avgWrQLen                       0.00                       # Average write queue length when enqueuing
system.mem_ctrls.readRowHits                      957                       # Number of row buffer hits during reads
system.mem_ctrls.writeRowHits                       0                       # Number of row buffer hits during writes
system.mem_ctrls.readRowHitRate                 65.95                       # Row buffer hit rate for reads
system.mem_ctrls.writeRowHitRate                  nan                       # Row buffer hit rate for writes
system.mem_ctrls.avgGap                     425539.63                       # Average gap between requests
system.mem_ctrls.pageHitRate                    65.95                       # Row buffer hit rate, read and write combined
system.mem_ctrls_0.actEnergy                  2413320                       # Energy for activate commands per rank (pJ)
system.mem_ctrls_0.preEnergy                  1278915                       # Energy for precharge commands per rank (pJ)
system.mem_ctrls_0.readEnergy                 6554520                       # Energy for read commands per rank (pJ)
system.mem_ctrls_0.writeEnergy                      0                       # Energy for write commands per rank (pJ)
system.mem_ctrls_0.refreshEnergy         49785840.000000                       # Energy for refresh commands per rank (pJ)
system.mem_ctrls_0.actBackEnergy             21984900                       # Energy for active background per rank (pJ)
system.mem_ctrls_0.preBackEnergy              1439520                       # Energy for precharge background per rank (pJ)
system.mem_ctrls_0.actPowerDownEnergy       222132990                       # Energy for active power-down per rank (pJ)
system.mem_ctrls_0.prePowerDownEnergy        27077280                       # Energy for precharge power-down per rank (pJ)
system.mem_ctrls_0.selfRefreshEnergy          3591720                       # Energy for self refresh per rank (pJ)
system.mem_ctrls_0.totalEnergy              336259005                       # Total energy per rank (pJ)
system.mem_ctrls_0.averagePower            544.398019                       # Core power per rank (mW)
system.mem_ctrls_0.totalIdleTime            565547500                       # Total Idle time Per DRAM Rank
system.mem_ctrls_0.memoryStateTime::IDLE      1262000                       # Time in different power states
system.mem_ctrls_0.memoryStateTime::REF      21078000                       # Time in different power states
system.mem_ctrls_0.memoryStateTime::SREF      8062250                       # Time in different power states
system.mem_ctrls_0.memoryStateTime::PRE_PDN     70529000                       # Time in different power states
system.mem_ctrls_0.memoryStateTime::ACT      29615250                       # Time in different power states
system.mem_ctrls_0.memoryStateTime::ACT_PDN    487124000                       # Time in different power states
system.mem_ctrls_1.actEnergy                  1113840                       # Energy for activate commands per rank (pJ)
system.mem_ctrls_1.preEnergy                   580635                       # Energy for precharge commands per rank (pJ)
system.mem_ctrls_1.readEnergy                 3805620                       # Energy for read commands per rank (pJ)
system.mem_ctrls_1.writeEnergy                      0                       # Energy for write commands per rank (pJ)
system.mem_ctrls_1.refreshEnergy         46098000.000000                       # Energy for refresh commands per rank (pJ)
system.mem_ctrls_1.actBackEnergy             15910980                       # Energy for active background per rank (pJ)
system.mem_ctrls_1.preBackEnergy              2044800                       # Energy for precharge background per rank (pJ)
system.mem_ctrls_1.actPowerDownEnergy       164334420                       # Energy for active power-down per rank (pJ)
system.mem_ctrls_1.prePowerDownEnergy        50911680                       # Energy for precharge power-down per rank (pJ)
system.mem_ctrls_1.selfRefreshEnergy         24695220                       # Energy for self refresh per rank (pJ)
system.mem_ctrls_1.totalEnergy              309495195                       # Total energy per rank (pJ)
system.mem_ctrls_1.averagePower            501.067833                       # Core power per rank (mW)
system.mem_ctrls_1.totalIdleTime            576717750                       # Total Idle time Per DRAM Rank
system.mem_ctrls_1.memoryStateTime::IDLE      3347000                       # Time in different power states
system.mem_ctrls_1.memoryStateTime::REF      19560000                       # Time in different power states
system.mem_ctrls_1.memoryStateTime::SREF     84490750                       # Time in different power states
system.mem_ctrls_1.memoryStateTime::PRE_PDN    132581750                       # Time in different power states
system.mem_ctrls_1.memoryStateTime::ACT      17305000                       # Time in different power states
system.mem_ctrls_1.memoryStateTime::ACT_PDN    360386000                       # Time in different power states
system.ruby.clk_domain.clock                      500                       # Clock period in ticks
system.ruby.phys_mem.pwrStateResidencyTicks::UNDEFINED    617670500                       # Cumulative time (in ticks) in various power states
system.ruby.phys_mem.bytes_read::cpu0.inst       624496                       # Number of bytes read from this memory
system.ruby.phys_mem.bytes_read::cpu0.data       107503                       # Number of bytes read from this memory
system.ruby.phys_mem.bytes_read::cpu1.CUs.ComputeUnit         5712                       # Number of bytes read from this memory
system.ruby.phys_mem.bytes_read::total         737711                       # Number of bytes read from this memory
system.ruby.phys_mem.bytes_inst_read::cpu0.inst       624496                       # Number of instructions bytes read from this memory
system.ruby.phys_mem.bytes_inst_read::cpu1.CUs.ComputeUnit         3152                       # Number of instructions bytes read from this memory
system.ruby.phys_mem.bytes_inst_read::total       627648                       # Number of instructions bytes read from this memory
system.ruby.phys_mem.bytes_written::cpu0.data        71051                       # Number of bytes written to this memory
system.ruby.phys_mem.bytes_written::cpu1.CUs.ComputeUnit          512                       # Number of bytes written to this memory
system.ruby.phys_mem.bytes_written::total        71563                       # Number of bytes written to this memory
system.ruby.phys_mem.num_reads::cpu0.inst        78062                       # Number of read requests responded to by this memory
system.ruby.phys_mem.num_reads::cpu0.data        15133                       # Number of read requests responded to by this memory
system.ruby.phys_mem.num_reads::cpu1.CUs.ComputeUnit         1094                       # Number of read requests responded to by this memory
system.ruby.phys_mem.num_reads::total           94289                       # Number of read requests responded to by this memory
system.ruby.phys_mem.num_writes::cpu0.data        10105                       # Number of write requests responded to by this memory
system.ruby.phys_mem.num_writes::cpu1.CUs.ComputeUnit          512                       # Number of write requests responded to by this memory
system.ruby.phys_mem.num_writes::total          10617                       # Number of write requests responded to by this memory
system.ruby.phys_mem.bw_read::cpu0.inst    1011050390                       # Total read bandwidth from this memory (bytes/s)
system.ruby.phys_mem.bw_read::cpu0.data     174045871                       # Total read bandwidth from this memory (bytes/s)
system.ruby.phys_mem.bw_read::cpu1.CUs.ComputeUnit      9247649                       # Total read bandwidth from this memory (bytes/s)
system.ruby.phys_mem.bw_read::total        1194343910                       # Total read bandwidth from this memory (bytes/s)
system.ruby.phys_mem.bw_inst_read::cpu0.inst   1011050390                       # Instruction read bandwidth from this memory (bytes/s)
system.ruby.phys_mem.bw_inst_read::cpu1.CUs.ComputeUnit      5103044                       # Instruction read bandwidth from this memory (bytes/s)
system.ruby.phys_mem.bw_inst_read::total   1016153435                       # Instruction read bandwidth from this memory (bytes/s)
system.ruby.phys_mem.bw_write::cpu0.data    115030587                       # Write bandwidth from this memory (bytes/s)
system.ruby.phys_mem.bw_write::cpu1.CUs.ComputeUnit       828921                       # Write bandwidth from this memory (bytes/s)
system.ruby.phys_mem.bw_write::total        115859508                       # Write bandwidth from this memory (bytes/s)
system.ruby.phys_mem.bw_total::cpu0.inst   1011050390                       # Total bandwidth to/from this memory (bytes/s)
system.ruby.phys_mem.bw_total::cpu0.data    289076457                       # Total bandwidth to/from this memory (bytes/s)
system.ruby.phys_mem.bw_total::cpu1.CUs.ComputeUnit     10076570                       # Total bandwidth to/from this memory (bytes/s)
system.ruby.phys_mem.bw_total::total       1310203418                       # Total bandwidth to/from this memory (bytes/s)
system.pwrStateResidencyTicks::UNDEFINED    617670500                       # Cumulative time (in ticks) in various power states
system.ruby.pwrStateResidencyTicks::UNDEFINED    617670500                       # Cumulative time (in ticks) in various power states
system.ruby.outstanding_req_hist_seqr::bucket_size            1                      
system.ruby.outstanding_req_hist_seqr::max_bucket            9                      
system.ruby.outstanding_req_hist_seqr::samples       103300                      
system.ruby.outstanding_req_hist_seqr::mean            1                      
system.ruby.outstanding_req_hist_seqr::gmean            1                      
system.ruby.outstanding_req_hist_seqr    |           0      0.00%      0.00% |      103300    100.00%    100.00% |           0      0.00%    100.00% |           0      0.00%    100.00% |           0      0.00%    100.00% |           0      0.00%    100.00% |           0      0.00%    100.00% |           0      0.00%    100.00% |           0      0.00%    100.00% |           0      0.00%    100.00%
system.ruby.outstanding_req_hist_seqr::total       103300                      
system.ruby.outstanding_req_hist_coalsr::bucket_size            1                      
system.ruby.outstanding_req_hist_coalsr::max_bucket            9                      
system.ruby.outstanding_req_hist_coalsr::samples           31                      
system.ruby.outstanding_req_hist_coalsr::mean     1.612903                      
system.ruby.outstanding_req_hist_coalsr::gmean     1.390847                      
system.ruby.outstanding_req_hist_coalsr::stdev     1.022331                      
system.ruby.outstanding_req_hist_coalsr  |           0      0.00%      0.00% |          21     67.74%     67.74% |           4     12.90%     80.65% |           3      9.68%     90.32% |           3      9.68%    100.00% |           0      0.00%    100.00% |           0      0.00%    100.00% |           0      0.00%    100.00% |           0      0.00%    100.00% |           0      0.00%    100.00%
system.ruby.outstanding_req_hist_coalsr::total           31                      
system.ruby.latency_hist_seqr::bucket_size           64                      
system.ruby.latency_hist_seqr::max_bucket          639                      
system.ruby.latency_hist_seqr::samples         103300                      
system.ruby.latency_hist_seqr::mean          4.926167                      
system.ruby.latency_hist_seqr::gmean         2.136075                      
system.ruby.latency_hist_seqr::stdev        25.009857                      
system.ruby.latency_hist_seqr            |      101863     98.61%     98.61% |           0      0.00%     98.61% |           0      0.00%     98.61% |        1401      1.36%     99.97% |          13      0.01%     99.98% |          11      0.01%     99.99% |           2      0.00%     99.99% |           0      0.00%     99.99% |           0      0.00%     99.99% |          10      0.01%    100.00%
system.ruby.latency_hist_seqr::total           103300                      
system.ruby.latency_hist_coalsr::bucket_size           32                      
system.ruby.latency_hist_coalsr::max_bucket          319                      
system.ruby.latency_hist_coalsr::samples           31                      
system.ruby.latency_hist_coalsr::mean       90.387097                      
system.ruby.latency_hist_coalsr::gmean       8.138154                      
system.ruby.latency_hist_coalsr::stdev     122.201112                      
system.ruby.latency_hist_coalsr          |          20     64.52%     64.52% |           0      0.00%     64.52% |           0      0.00%     64.52% |           0      0.00%     64.52% |           0      0.00%     64.52% |           0      0.00%     64.52% |           0      0.00%     64.52% |           8     25.81%     90.32% |           3      9.68%    100.00% |           0      0.00%    100.00%
system.ruby.latency_hist_coalsr::total             31                      
system.ruby.hit_latency_hist_seqr::bucket_size           64                      
system.ruby.hit_latency_hist_seqr::max_bucket          639                      
system.ruby.hit_latency_hist_seqr::samples         1437                      
system.ruby.hit_latency_hist_seqr::mean    211.736256                      
system.ruby.hit_latency_hist_seqr::gmean   209.841883                      
system.ruby.hit_latency_hist_seqr::stdev    39.748540                      
system.ruby.hit_latency_hist_seqr        |           0      0.00%      0.00% |           0      0.00%      0.00% |           0      0.00%      0.00% |        1401     97.49%     97.49% |          13      0.90%     98.40% |          11      0.77%     99.16% |           2      0.14%     99.30% |           0      0.00%     99.30% |           0      0.00%     99.30% |          10      0.70%    100.00%
system.ruby.hit_latency_hist_seqr::total         1437                      
system.ruby.miss_latency_hist_seqr::bucket_size            4                      
system.ruby.miss_latency_hist_seqr::max_bucket           39                      
system.ruby.miss_latency_hist_seqr::samples       101863                      
system.ruby.miss_latency_hist_seqr::mean     2.008659                      
system.ruby.miss_latency_hist_seqr::gmean     2.002216                      
system.ruby.miss_latency_hist_seqr::stdev     0.394693                      
system.ruby.miss_latency_hist_seqr       |      101814     99.95%     99.95% |           0      0.00%     99.95% |           0      0.00%     99.95% |           0      0.00%     99.95% |           0      0.00%     99.95% |          49      0.05%    100.00% |           0      0.00%    100.00% |           0      0.00%    100.00% |           0      0.00%    100.00% |           0      0.00%    100.00%
system.ruby.miss_latency_hist_seqr::total       101863                      
system.ruby.miss_latency_hist_coalsr::bucket_size           32                      
system.ruby.miss_latency_hist_coalsr::max_bucket          319                      
system.ruby.miss_latency_hist_coalsr::samples           31                      
system.ruby.miss_latency_hist_coalsr::mean    90.387097                      
system.ruby.miss_latency_hist_coalsr::gmean     8.138154                      
system.ruby.miss_latency_hist_coalsr::stdev   122.201112                      
system.ruby.miss_latency_hist_coalsr     |          20     64.52%     64.52% |           0      0.00%     64.52% |           0      0.00%     64.52% |           0      0.00%     64.52% |           0      0.00%     64.52% |           0      0.00%     64.52% |           0      0.00%     64.52% |           8     25.81%     90.32% |           3      9.68%    100.00% |           0      0.00%    100.00%
system.ruby.miss_latency_hist_coalsr::total           31                      
system.ruby.L1Cache.incomplete_times_seqr       101814                      
system.ruby.L2Cache.incomplete_times_seqr           49                      
system.cp_cntrl0.L1D0cache.demand_hits              0                       # Number of cache demand hits
system.cp_cntrl0.L1D0cache.demand_misses          489                       # Number of cache demand misses
system.cp_cntrl0.L1D0cache.demand_accesses          489                       # Number of cache demand accesses
system.cp_cntrl0.L1D0cache.num_data_array_reads        14664                       # number of data array reads
system.cp_cntrl0.L1D0cache.num_data_array_writes        11522                       # number of data array writes
system.cp_cntrl0.L1D0cache.num_tag_array_reads        25260                       # number of tag array reads
system.cp_cntrl0.L1D0cache.num_tag_array_writes         1478                       # number of tag array writes
system.cp_cntrl0.L1D1cache.demand_hits              0                       # Number of cache demand hits
system.cp_cntrl0.L1D1cache.demand_misses            0                       # Number of cache demand misses
system.cp_cntrl0.L1D1cache.demand_accesses            0                       # Number of cache demand accesses
system.cp_cntrl0.L1Icache.demand_hits               0                       # Number of cache demand hits
system.cp_cntrl0.L1Icache.demand_misses           997                       # Number of cache demand misses
system.cp_cntrl0.L1Icache.demand_accesses          997                       # Number of cache demand accesses
system.cp_cntrl0.L1Icache.num_data_array_reads        77065                       # number of data array reads
system.cp_cntrl0.L1Icache.num_data_array_writes           49                       # number of data array writes
system.cp_cntrl0.L1Icache.num_tag_array_reads        78573                       # number of tag array reads
system.cp_cntrl0.L1Icache.num_tag_array_writes           49                       # number of tag array writes
system.cp_cntrl0.L2cache.demand_hits                0                       # Number of cache demand hits
system.cp_cntrl0.L2cache.demand_misses           1437                       # Number of cache demand misses
system.cp_cntrl0.L2cache.demand_accesses         1437                       # Number of cache demand accesses
system.cp_cntrl0.L2cache.num_data_array_reads          100                       # number of data array reads
system.cp_cntrl0.L2cache.num_data_array_writes        11522                       # number of data array writes
system.cp_cntrl0.L2cache.num_tag_array_reads        11585                       # number of tag array reads
system.cp_cntrl0.L2cache.num_tag_array_writes         1538                       # number of tag array writes
system.cp_cntrl0.mandatoryQueue.avg_buf_msgs     0.418027                       # Average number of messages in buffer
system.cp_cntrl0.mandatoryQueue.avg_stall_time  1999.993524                       # Average number of cycles messages are stalled in this MB
system.cp_cntrl0.probeToCore.avg_buf_msgs     0.000011                       # Average number of messages in buffer
system.cp_cntrl0.probeToCore.avg_stall_time  4259.073451                       # Average number of cycles messages are stalled in this MB
system.cp_cntrl0.requestFromCore.avg_buf_msgs     0.034897                       # Average number of messages in buffer
system.cp_cntrl0.requestFromCore.avg_stall_time 14999.587159                       # Average number of cycles messages are stalled in this MB
system.cp_cntrl0.responseFromCore.avg_buf_msgs     0.000340                       # Average number of messages in buffer
system.cp_cntrl0.responseFromCore.avg_stall_time  1996.076408                       # Average number of cycles messages are stalled in this MB
system.cp_cntrl0.responseToCore.avg_buf_msgs     0.001163                       # Average number of messages in buffer
system.cp_cntrl0.responseToCore.avg_stall_time 31989.327643                       # Average number of cycles messages are stalled in this MB
system.cp_cntrl0.sequencer.pwrStateResidencyTicks::UNDEFINED    617670500                       # Cumulative time (in ticks) in various power states
system.cp_cntrl0.sequencer1.pwrStateResidencyTicks::UNDEFINED    617670500                       # Cumulative time (in ticks) in various power states
system.cp_cntrl0.triggerQueue.avg_buf_msgs     0.001428                       # Average number of messages in buffer
system.cp_cntrl0.triggerQueue.avg_stall_time 10868.926081                       # Average number of cycles messages are stalled in this MB
system.cp_cntrl0.unblockFromCore.avg_buf_msgs     0.034883                       # Average number of messages in buffer
system.cp_cntrl0.unblockFromCore.avg_stall_time 14994.633061                       # Average number of cycles messages are stalled in this MB
system.cp_cntrl0.pwrStateResidencyTicks::UNDEFINED    617670500                       # Cumulative time (in ticks) in various power states
system.cpu0.clk_domain.voltage_domain.voltage            1                       # Voltage in Volts
system.cpu0.clk_domain.clock                      500                       # Clock period in ticks
system.cpu0.dtb.walker.pwrStateResidencyTicks::UNDEFINED    617670500                       # Cumulative time (in ticks) in various power states
system.cpu0.apic_clk_domain.clock                8000                       # Clock period in ticks
system.cpu0.interrupts.pwrStateResidencyTicks::UNDEFINED    617670500                       # Cumulative time (in ticks) in various power states
system.cpu0.itb.walker.pwrStateResidencyTicks::UNDEFINED    617670500                       # Cumulative time (in ticks) in various power states
system.cpu0.workload.num_syscalls                  23                       # Number of system calls
system.cpu0.numPwrStateTransitions                  2                       # Number of power state transitions
system.cpu0.pwrStateClkGateDist::samples            1                       # Distribution of time spent in the clock gated state
system.cpu0.pwrStateClkGateDist::mean         5218502                       # Distribution of time spent in the clock gated state
system.cpu0.pwrStateClkGateDist::1000-5e+10            1    100.00%    100.00% # Distribution of time spent in the clock gated state
system.cpu0.pwrStateClkGateDist::min_value      5218502                       # Distribution of time spent in the clock gated state
system.cpu0.pwrStateClkGateDist::max_value      5218502                       # Distribution of time spent in the clock gated state
system.cpu0.pwrStateClkGateDist::total              1                       # Distribution of time spent in the clock gated state
system.cpu0.pwrStateResidencyTicks::ON      612451998                       # Cumulative time (in ticks) in various power states
system.cpu0.pwrStateResidencyTicks::CLK_GATED      5218502                       # Cumulative time (in ticks) in various power states
system.cpu0.numCycles                         1235341                       # number of cpu cycles simulated
system.cpu0.numWorkItemsStarted                     0                       # number of work items this cpu started
system.cpu0.numWorkItemsCompleted                   0                       # number of work items this cpu completed
system.cpu0.committedInsts                      59652                       # Number of instructions committed
system.cpu0.committedOps                       119114                       # Number of ops (including micro ops) committed
system.cpu0.num_int_alu_accesses               117463                       # Number of integer alu accesses
system.cpu0.num_fp_alu_accesses                  1331                       # Number of float alu accesses
system.cpu0.num_func_calls                       3025                       # number of times a function call or return occured
system.cpu0.num_conditional_control_insts        10587                       # number of instructions that are conditional controls
system.cpu0.num_int_insts                      117463                       # number of integer instructions
system.cpu0.num_fp_insts                         1331                       # number of float instructions
system.cpu0.num_int_register_reads             225384                       # number of times the integer registers were read
system.cpu0.num_int_register_writes             93631                       # number of times the integer registers were written
system.cpu0.num_fp_register_reads                2085                       # number of times the floating registers were read
system.cpu0.num_fp_register_writes               1031                       # number of times the floating registers were written
system.cpu0.num_cc_register_reads               69125                       # number of times the CC registers were read
system.cpu0.num_cc_register_writes              37306                       # number of times the CC registers were written
system.cpu0.num_mem_refs                        25331                       # number of memory refs
system.cpu0.num_load_insts                      15133                       # Number of load instructions
system.cpu0.num_store_insts                     10198                       # Number of store instructions
system.cpu0.num_idle_cycles              10437.005983                       # Number of idle cycles
system.cpu0.num_busy_cycles              1224903.994017                       # Number of busy cycles
system.cpu0.not_idle_fraction                0.991551                       # Percentage of non-idle cycles
system.cpu0.idle_fraction                    0.008449                       # Percentage of idle cycles
system.cpu0.Branches                            14152                       # Number of branches fetched
system.cpu0.op_class::No_OpClass                  879      0.74%      0.74% # Class of executed instruction
system.cpu0.op_class::IntAlu                    91763     77.04%     77.78% # Class of executed instruction
system.cpu0.op_class::IntMult                      11      0.01%     77.79% # Class of executed instruction
system.cpu0.op_class::IntDiv                      138      0.12%     77.90% # Class of executed instruction
system.cpu0.op_class::FloatAdd                    992      0.83%     78.73% # Class of executed instruction
system.cpu0.op_class::FloatCmp                      0      0.00%     78.73% # Class of executed instruction
system.cpu0.op_class::FloatCvt                      0      0.00%     78.73% # Class of executed instruction
system.cpu0.op_class::FloatMult                     0      0.00%     78.73% # Class of executed instruction
system.cpu0.op_class::FloatMultAcc                  0      0.00%     78.73% # Class of executed instruction
system.cpu0.op_class::FloatDiv                      0      0.00%     78.73% # Class of executed instruction
system.cpu0.op_class::FloatMisc                     0      0.00%     78.73% # Class of executed instruction
system.cpu0.op_class::FloatSqrt                     0      0.00%     78.73% # Class of executed instruction
system.cpu0.op_class::SimdAdd                       0      0.00%     78.73% # Class of executed instruction
system.cpu0.op_class::SimdAddAcc                    0      0.00%     78.73% # Class of executed instruction
system.cpu0.op_class::SimdAlu                       0      0.00%     78.73% # Class of executed instruction
system.cpu0.op_class::SimdCmp                       0      0.00%     78.73% # Class of executed instruction
system.cpu0.op_class::SimdCvt                       0      0.00%     78.73% # Class of executed instruction
system.cpu0.op_class::SimdMisc                      0      0.00%     78.73% # Class of executed instruction
system.cpu0.op_class::SimdMult                      0      0.00%     78.73% # Class of executed instruction
system.cpu0.op_class::SimdMultAcc                   0      0.00%     78.73% # Class of executed instruction
system.cpu0.op_class::SimdShift                     0      0.00%     78.73% # Class of executed instruction
system.cpu0.op_class::SimdShiftAcc                  0      0.00%     78.73% # Class of executed instruction
system.cpu0.op_class::SimdSqrt                      0      0.00%     78.73% # Class of executed instruction
system.cpu0.op_class::SimdFloatAdd                  0      0.00%     78.73% # Class of executed instruction
system.cpu0.op_class::SimdFloatAlu                  0      0.00%     78.73% # Class of executed instruction
system.cpu0.op_class::SimdFloatCmp                  0      0.00%     78.73% # Class of executed instruction
system.cpu0.op_class::SimdFloatCvt                  0      0.00%     78.73% # Class of executed instruction
system.cpu0.op_class::SimdFloatDiv                  0      0.00%     78.73% # Class of executed instruction
system.cpu0.op_class::SimdFloatMisc                 0      0.00%     78.73% # Class of executed instruction
system.cpu0.op_class::SimdFloatMult                 0      0.00%     78.73% # Class of executed instruction
system.cpu0.op_class::SimdFloatMultAcc              0      0.00%     78.73% # Class of executed instruction
system.cpu0.op_class::SimdFloatSqrt                 0      0.00%     78.73% # Class of executed instruction
system.cpu0.op_class::MemRead                   14833     12.45%     91.19% # Class of executed instruction
system.cpu0.op_class::MemWrite                  10198      8.56%     99.75% # Class of executed instruction
system.cpu0.op_class::FloatMemRead                300      0.25%    100.00% # Class of executed instruction
system.cpu0.op_class::FloatMemWrite                 0      0.00%    100.00% # Class of executed instruction
system.cpu0.op_class::IprAccess                     0      0.00%    100.00% # Class of executed instruction
system.cpu0.op_class::InstPrefetch                  0      0.00%    100.00% # Class of executed instruction
system.cpu0.op_class::total                    119114                       # Class of executed instruction
system.cpu1.clk_domain.voltage_domain.voltage            1                       # Voltage in Volts
system.cpu1.clk_domain.clock                     1000                       # Clock period in ticks
system.cpu1.CUs.localDataStore.pwrStateResidencyTicks::UNDEFINED    617670500                       # Cumulative time (in ticks) in various power states
system.cpu1.CUs.wavefronts00.timesBlockedDueVrfPortAvail            0                       # number of times instructions are blocked due to VRF port availability
system.cpu1.CUs.wavefronts00.timesBlockedDueWAXDependencies            0                       # number of times the wf's instructions are blocked due to WAW or WAR dependencies
system.cpu1.CUs.wavefronts00.timesBlockedDueRAWDependencies         1362                       # number of times the wf's instructions are blocked due to RAW dependencies
system.cpu1.CUs.wavefronts00.src_reg_operand_dist::samples           78                       # number of executed instructions with N source register operands
system.cpu1.CUs.wavefronts00.src_reg_operand_dist::mean     0.794872                       # number of executed instructions with N source register operands
system.cpu1.CUs.wavefronts00.src_reg_operand_dist::stdev     0.858252                       # number of executed instructions with N source register operands
system.cpu1.CUs.wavefronts00.src_reg_operand_dist::underflows            0      0.00%      0.00% # number of executed instructions with N source register operands
system.cpu1.CUs.wavefronts00.src_reg_operand_dist::0-1           56     71.79%     71.79% # number of executed instructions with N source register operands
system.cpu1.CUs.wavefronts00.src_reg_operand_dist::2-3           22     28.21%    100.00% # number of executed instructions with N source register operands
system.cpu1.CUs.wavefronts00.src_reg_operand_dist::4            0      0.00%    100.00% # number of executed instructions with N source register operands
system.cpu1.CUs.wavefronts00.src_reg_operand_dist::overflows            0      0.00%    100.00% # number of executed instructions with N source register operands
system.cpu1.CUs.wavefronts00.src_reg_operand_dist::min_value            0                       # number of executed instructions with N source register operands
system.cpu1.CUs.wavefronts00.src_reg_operand_dist::max_value            2                       # number of executed instructions with N source register operands
system.cpu1.CUs.wavefronts00.src_reg_operand_dist::total           78                       # number of executed instructions with N source register operands
system.cpu1.CUs.wavefronts00.dst_reg_operand_dist::samples           78                       # number of executed instructions with N destination register operands
system.cpu1.CUs.wavefronts00.dst_reg_operand_dist::mean     0.589744                       # number of executed instructions with N destination register operands
system.cpu1.CUs.wavefronts00.dst_reg_operand_dist::stdev     0.495064                       # number of executed instructions with N destination register operands
system.cpu1.CUs.wavefronts00.dst_reg_operand_dist::underflows            0      0.00%      0.00% # number of executed instructions with N destination register operands
system.cpu1.CUs.wavefronts00.dst_reg_operand_dist::0-1           78    100.00%    100.00% # number of executed instructions with N destination register operands
system.cpu1.CUs.wavefronts00.dst_reg_operand_dist::2-3            0      0.00%    100.00% # number of executed instructions with N destination register operands
system.cpu1.CUs.wavefronts00.dst_reg_operand_dist::overflows            0      0.00%    100.00% # number of executed instructions with N destination register operands
system.cpu1.CUs.wavefronts00.dst_reg_operand_dist::min_value            0                       # number of executed instructions with N destination register operands
system.cpu1.CUs.wavefronts00.dst_reg_operand_dist::max_value            1                       # number of executed instructions with N destination register operands
system.cpu1.CUs.wavefronts00.dst_reg_operand_dist::total           78                       # number of executed instructions with N destination register operands
system.cpu1.CUs.wavefronts01.timesBlockedDueVrfPortAvail            0                       # number of times instructions are blocked due to VRF port availability
system.cpu1.CUs.wavefronts01.timesBlockedDueWAXDependencies            0                       # number of times the wf's instructions are blocked due to WAW or WAR dependencies
system.cpu1.CUs.wavefronts01.timesBlockedDueRAWDependencies            0                       # number of times the wf's instructions are blocked due to RAW dependencies
system.cpu1.CUs.wavefronts01.src_reg_operand_dist::samples            0                       # number of executed instructions with N source register operands
system.cpu1.CUs.wavefronts01.src_reg_operand_dist::mean          nan                       # number of executed instructions with N source register operands
system.cpu1.CUs.wavefronts01.src_reg_operand_dist::stdev          nan                       # number of executed instructions with N source register operands
system.cpu1.CUs.wavefronts01.src_reg_operand_dist::underflows            0                       # number of executed instructions with N source register operands
system.cpu1.CUs.wavefronts01.src_reg_operand_dist::0-1            0                       # number of executed instructions with N source register operands
system.cpu1.CUs.wavefronts01.src_reg_operand_dist::2-3            0                       # number of executed instructions with N source register operands
system.cpu1.CUs.wavefronts01.src_reg_operand_dist::4            0                       # number of executed instructions with N source register operands
system.cpu1.CUs.wavefronts01.src_reg_operand_dist::overflows            0                       # number of executed instructions with N source register operands
system.cpu1.CUs.wavefronts01.src_reg_operand_dist::min_value            0                       # number of executed instructions with N source register operands
system.cpu1.CUs.wavefronts01.src_reg_operand_dist::max_value            0                       # number of executed instructions with N source register operands
system.cpu1.CUs.wavefronts01.src_reg_operand_dist::total            0                       # number of executed instructions with N source register operands
system.cpu1.CUs.wavefronts01.dst_reg_operand_dist::samples            0                       # number of executed instructions with N destination register operands
system.cpu1.CUs.wavefronts01.dst_reg_operand_dist::mean          nan                       # number of executed instructions with N destination register operands
system.cpu1.CUs.wavefronts01.dst_reg_operand_dist::stdev          nan                       # number of executed instructions with N destination register operands
system.cpu1.CUs.wavefronts01.dst_reg_operand_dist::underflows            0                       # number of executed instructions with N destination register operands
system.cpu1.CUs.wavefronts01.dst_reg_operand_dist::0-1            0                       # number of executed instructions with N destination register operands
system.cpu1.CUs.wavefronts01.dst_reg_operand_dist::2-3            0                       # number of executed instructions with N destination register operands
system.cpu1.CUs.wavefronts01.dst_reg_operand_dist::overflows            0                       # number of executed instructions with N destination register operands
system.cpu1.CUs.wavefronts01.dst_reg_operand_dist::min_value            0                       # number of executed instructions with N destination register operands
system.cpu1.CUs.wavefronts01.dst_reg_operand_dist::max_value            0                       # number of executed instructions with N destination register operands
system.cpu1.CUs.wavefronts01.dst_reg_operand_dist::total            0                       # number of executed instructions with N destination register operands
system.cpu1.CUs.wavefronts02.timesBlockedDueVrfPortAvail            0                       # number of times instructions are blocked due to VRF port availability
system.cpu1.CUs.wavefronts02.timesBlockedDueWAXDependencies            0                       # number of times the wf's instructions are blocked due to WAW or WAR dependencies
system.cpu1.CUs.wavefronts02.timesBlockedDueRAWDependencies            0                       # number of times the wf's instructions are blocked due to RAW dependencies
system.cpu1.CUs.wavefronts02.src_reg_operand_dist::samples            0                       # number of executed instructions with N source register operands
system.cpu1.CUs.wavefronts02.src_reg_operand_dist::mean          nan                       # number of executed instructions with N source register operands
system.cpu1.CUs.wavefronts02.src_reg_operand_dist::stdev          nan                       # number of executed instructions with N source register operands
system.cpu1.CUs.wavefronts02.src_reg_operand_dist::underflows            0                       # number of executed instructions with N source register operands
system.cpu1.CUs.wavefronts02.src_reg_operand_dist::0-1            0                       # number of executed instructions with N source register operands
system.cpu1.CUs.wavefronts02.src_reg_operand_dist::2-3            0                       # number of executed instructions with N source register operands
system.cpu1.CUs.wavefronts02.src_reg_operand_dist::4            0                       # number of executed instructions with N source register operands
system.cpu1.CUs.wavefronts02.src_reg_operand_dist::overflows            0                       # number of executed instructions with N source register operands
system.cpu1.CUs.wavefronts02.src_reg_operand_dist::min_value            0                       # number of executed instructions with N source register operands
system.cpu1.CUs.wavefronts02.src_reg_operand_dist::max_value            0                       # number of executed instructions with N source register operands
system.cpu1.CUs.wavefronts02.src_reg_operand_dist::total            0                       # number of executed instructions with N source register operands
system.cpu1.CUs.wavefronts02.dst_reg_operand_dist::samples            0                       # number of executed instructions with N destination register operands
system.cpu1.CUs.wavefronts02.dst_reg_operand_dist::mean          nan                       # number of executed instructions with N destination register operands
system.cpu1.CUs.wavefronts02.dst_reg_operand_dist::stdev          nan                       # number of executed instructions with N destination register operands
system.cpu1.CUs.wavefronts02.dst_reg_operand_dist::underflows            0                       # number of executed instructions with N destination register operands
system.cpu1.CUs.wavefronts02.dst_reg_operand_dist::0-1            0                       # number of executed instructions with N destination register operands
system.cpu1.CUs.wavefronts02.dst_reg_operand_dist::2-3            0                       # number of executed instructions with N destination register operands
system.cpu1.CUs.wavefronts02.dst_reg_operand_dist::overflows            0                       # number of executed instructions with N destination register operands
system.cpu1.CUs.wavefronts02.dst_reg_operand_dist::min_value            0                       # number of executed instructions with N destination register operands
system.cpu1.CUs.wavefronts02.dst_reg_operand_dist::max_value            0                       # number of executed instructions with N destination register operands
system.cpu1.CUs.wavefronts02.dst_reg_operand_dist::total            0                       # number of executed instructions with N destination register operands
system.cpu1.CUs.wavefronts03.timesBlockedDueVrfPortAvail            0                       # number of times instructions are blocked due to VRF port availability
system.cpu1.CUs.wavefronts03.timesBlockedDueWAXDependencies            0                       # number of times the wf's instructions are blocked due to WAW or WAR dependencies
system.cpu1.CUs.wavefronts03.timesBlockedDueRAWDependencies            0                       # number of times the wf's instructions are blocked due to RAW dependencies
system.cpu1.CUs.wavefronts03.src_reg_operand_dist::samples            0                       # number of executed instructions with N source register operands
system.cpu1.CUs.wavefronts03.src_reg_operand_dist::mean          nan                       # number of executed instructions with N source register operands
system.cpu1.CUs.wavefronts03.src_reg_operand_dist::stdev          nan                       # number of executed instructions with N source register operands
system.cpu1.CUs.wavefronts03.src_reg_operand_dist::underflows            0                       # number of executed instructions with N source register operands
system.cpu1.CUs.wavefronts03.src_reg_operand_dist::0-1            0                       # number of executed instructions with N source register operands
system.cpu1.CUs.wavefronts03.src_reg_operand_dist::2-3            0                       # number of executed instructions with N source register operands
system.cpu1.CUs.wavefronts03.src_reg_operand_dist::4            0                       # number of executed instructions with N source register operands
system.cpu1.CUs.wavefronts03.src_reg_operand_dist::overflows            0                       # number of executed instructions with N source register operands
system.cpu1.CUs.wavefronts03.src_reg_operand_dist::min_value            0                       # number of executed instructions with N source register operands
system.cpu1.CUs.wavefronts03.src_reg_operand_dist::max_value            0                       # number of executed instructions with N source register operands
system.cpu1.CUs.wavefronts03.src_reg_operand_dist::total            0                       # number of executed instructions with N source register operands
system.cpu1.CUs.wavefronts03.dst_reg_operand_dist::samples            0                       # number of executed instructions with N destination register operands
system.cpu1.CUs.wavefronts03.dst_reg_operand_dist::mean          nan                       # number of executed instructions with N destination register operands
system.cpu1.CUs.wavefronts03.dst_reg_operand_dist::stdev          nan                       # number of executed instructions with N destination register operands
system.cpu1.CUs.wavefronts03.dst_reg_operand_dist::underflows            0                       # number of executed instructions with N destination register operands
system.cpu1.CUs.wavefronts03.dst_reg_operand_dist::0-1            0                       # number of executed instructions with N destination register operands
system.cpu1.CUs.wavefronts03.dst_reg_operand_dist::2-3            0                       # number of executed instructions with N destination register operands
system.cpu1.CUs.wavefronts03.dst_reg_operand_dist::overflows            0                       # number of executed instructions with N destination register operands
system.cpu1.CUs.wavefronts03.dst_reg_operand_dist::min_value            0                       # number of executed instructions with N destination register operands
system.cpu1.CUs.wavefronts03.dst_reg_operand_dist::max_value            0                       # number of executed instructions with N destination register operands
system.cpu1.CUs.wavefronts03.dst_reg_operand_dist::total            0                       # number of executed instructions with N destination register operands
system.cpu1.CUs.wavefronts04.timesBlockedDueVrfPortAvail            0                       # number of times instructions are blocked due to VRF port availability
system.cpu1.CUs.wavefronts04.timesBlockedDueWAXDependencies            0                       # number of times the wf's instructions are blocked due to WAW or WAR dependencies
system.cpu1.CUs.wavefronts04.timesBlockedDueRAWDependencies            0                       # number of times the wf's instructions are blocked due to RAW dependencies
system.cpu1.CUs.wavefronts04.src_reg_operand_dist::samples            0                       # number of executed instructions with N source register operands
system.cpu1.CUs.wavefronts04.src_reg_operand_dist::mean          nan                       # number of executed instructions with N source register operands
system.cpu1.CUs.wavefronts04.src_reg_operand_dist::stdev          nan                       # number of executed instructions with N source register operands
system.cpu1.CUs.wavefronts04.src_reg_operand_dist::underflows            0                       # number of executed instructions with N source register operands
system.cpu1.CUs.wavefronts04.src_reg_operand_dist::0-1            0                       # number of executed instructions with N source register operands
system.cpu1.CUs.wavefronts04.src_reg_operand_dist::2-3            0                       # number of executed instructions with N source register operands
system.cpu1.CUs.wavefronts04.src_reg_operand_dist::4            0                       # number of executed instructions with N source register operands
system.cpu1.CUs.wavefronts04.src_reg_operand_dist::overflows            0                       # number of executed instructions with N source register operands
system.cpu1.CUs.wavefronts04.src_reg_operand_dist::min_value            0                       # number of executed instructions with N source register operands
system.cpu1.CUs.wavefronts04.src_reg_operand_dist::max_value            0                       # number of executed instructions with N source register operands
system.cpu1.CUs.wavefronts04.src_reg_operand_dist::total            0                       # number of executed instructions with N source register operands
system.cpu1.CUs.wavefronts04.dst_reg_operand_dist::samples            0                       # number of executed instructions with N destination register operands
system.cpu1.CUs.wavefronts04.dst_reg_operand_dist::mean          nan                       # number of executed instructions with N destination register operands
system.cpu1.CUs.wavefronts04.dst_reg_operand_dist::stdev          nan                       # number of executed instructions with N destination register operands
system.cpu1.CUs.wavefronts04.dst_reg_operand_dist::underflows            0                       # number of executed instructions with N destination register operands
system.cpu1.CUs.wavefronts04.dst_reg_operand_dist::0-1            0                       # number of executed instructions with N destination register operands
system.cpu1.CUs.wavefronts04.dst_reg_operand_dist::2-3            0                       # number of executed instructions with N destination register operands
system.cpu1.CUs.wavefronts04.dst_reg_operand_dist::overflows            0                       # number of executed instructions with N destination register operands
system.cpu1.CUs.wavefronts04.dst_reg_operand_dist::min_value            0                       # number of executed instructions with N destination register operands
system.cpu1.CUs.wavefronts04.dst_reg_operand_dist::max_value            0                       # number of executed instructions with N destination register operands
system.cpu1.CUs.wavefronts04.dst_reg_operand_dist::total            0                       # number of executed instructions with N destination register operands
system.cpu1.CUs.wavefronts05.timesBlockedDueVrfPortAvail            0                       # number of times instructions are blocked due to VRF port availability
system.cpu1.CUs.wavefronts05.timesBlockedDueWAXDependencies            0                       # number of times the wf's instructions are blocked due to WAW or WAR dependencies
system.cpu1.CUs.wavefronts05.timesBlockedDueRAWDependencies            0                       # number of times the wf's instructions are blocked due to RAW dependencies
system.cpu1.CUs.wavefronts05.src_reg_operand_dist::samples            0                       # number of executed instructions with N source register operands
system.cpu1.CUs.wavefronts05.src_reg_operand_dist::mean          nan                       # number of executed instructions with N source register operands
system.cpu1.CUs.wavefronts05.src_reg_operand_dist::stdev          nan                       # number of executed instructions with N source register operands
system.cpu1.CUs.wavefronts05.src_reg_operand_dist::underflows            0                       # number of executed instructions with N source register operands
system.cpu1.CUs.wavefronts05.src_reg_operand_dist::0-1            0                       # number of executed instructions with N source register operands
system.cpu1.CUs.wavefronts05.src_reg_operand_dist::2-3            0                       # number of executed instructions with N source register operands
system.cpu1.CUs.wavefronts05.src_reg_operand_dist::4            0                       # number of executed instructions with N source register operands
system.cpu1.CUs.wavefronts05.src_reg_operand_dist::overflows            0                       # number of executed instructions with N source register operands
system.cpu1.CUs.wavefronts05.src_reg_operand_dist::min_value            0                       # number of executed instructions with N source register operands
system.cpu1.CUs.wavefronts05.src_reg_operand_dist::max_value            0                       # number of executed instructions with N source register operands
system.cpu1.CUs.wavefronts05.src_reg_operand_dist::total            0                       # number of executed instructions with N source register operands
system.cpu1.CUs.wavefronts05.dst_reg_operand_dist::samples            0                       # number of executed instructions with N destination register operands
system.cpu1.CUs.wavefronts05.dst_reg_operand_dist::mean          nan                       # number of executed instructions with N destination register operands
system.cpu1.CUs.wavefronts05.dst_reg_operand_dist::stdev          nan                       # number of executed instructions with N destination register operands
system.cpu1.CUs.wavefronts05.dst_reg_operand_dist::underflows            0                       # number of executed instructions with N destination register operands
system.cpu1.CUs.wavefronts05.dst_reg_operand_dist::0-1            0                       # number of executed instructions with N destination register operands
system.cpu1.CUs.wavefronts05.dst_reg_operand_dist::2-3            0                       # number of executed instructions with N destination register operands
system.cpu1.CUs.wavefronts05.dst_reg_operand_dist::overflows            0                       # number of executed instructions with N destination register operands
system.cpu1.CUs.wavefronts05.dst_reg_operand_dist::min_value            0                       # number of executed instructions with N destination register operands
system.cpu1.CUs.wavefronts05.dst_reg_operand_dist::max_value            0                       # number of executed instructions with N destination register operands
system.cpu1.CUs.wavefronts05.dst_reg_operand_dist::total            0                       # number of executed instructions with N destination register operands
system.cpu1.CUs.wavefronts06.timesBlockedDueVrfPortAvail            0                       # number of times instructions are blocked due to VRF port availability
system.cpu1.CUs.wavefronts06.timesBlockedDueWAXDependencies            0                       # number of times the wf's instructions are blocked due to WAW or WAR dependencies
system.cpu1.CUs.wavefronts06.timesBlockedDueRAWDependencies            0                       # number of times the wf's instructions are blocked due to RAW dependencies
system.cpu1.CUs.wavefronts06.src_reg_operand_dist::samples            0                       # number of executed instructions with N source register operands
system.cpu1.CUs.wavefronts06.src_reg_operand_dist::mean          nan                       # number of executed instructions with N source register operands
system.cpu1.CUs.wavefronts06.src_reg_operand_dist::stdev          nan                       # number of executed instructions with N source register operands
[...]
system.ruby.LD.Directory.hit_type_mach_latency_hist_seqr::total          188                      
system.ruby.LD.TCP.miss_type_mach_latency_hist_coalsr::bucket_size            1                      
system.ruby.LD.TCP.miss_type_mach_latency_hist_coalsr::max_bucket            9                      
system.ruby.LD.TCP.miss_type_mach_latency_hist_coalsr::samples           11                      
system.ruby.LD.TCP.miss_type_mach_latency_hist_coalsr::mean     1.181818                      
system.ruby.LD.TCP.miss_type_mach_latency_hist_coalsr::gmean     1.134313                      
system.ruby.LD.TCP.miss_type_mach_latency_hist_coalsr::stdev     0.404520                      
system.ruby.LD.TCP.miss_type_mach_latency_hist_coalsr |           0      0.00%      0.00% |           9     81.82%     81.82% |           2     18.18%    100.00% |           0      0.00%    100.00% |           0      0.00%    100.00% |           0      0.00%    100.00% |           0      0.00%    100.00% |           0      0.00%    100.00% |           0      0.00%    100.00% |           0      0.00%    100.00%
system.ruby.LD.TCP.miss_type_mach_latency_hist_coalsr::total           11                      
system.ruby.LD.TCCdir.miss_type_mach_latency_hist_coalsr::bucket_size           32                      
system.ruby.LD.TCCdir.miss_type_mach_latency_hist_coalsr::max_bucket          319                      
system.ruby.LD.TCCdir.miss_type_mach_latency_hist_coalsr::samples            2                      
system.ruby.LD.TCCdir.miss_type_mach_latency_hist_coalsr::mean          259                      
system.ruby.LD.TCCdir.miss_type_mach_latency_hist_coalsr::gmean   259.000000                      
system.ruby.LD.TCCdir.miss_type_mach_latency_hist_coalsr |           0      0.00%      0.00% |           0      0.00%      0.00% |           0      0.00%      0.00% |           0      0.00%      0.00% |           0      0.00%      0.00% |           0      0.00%      0.00% |           0      0.00%      0.00% |           0      0.00%      0.00% |           2    100.00%    100.00% |           0      0.00%    100.00%
system.ruby.LD.TCCdir.miss_type_mach_latency_hist_coalsr::total            2                      
system.ruby.ST.L1Cache.miss_type_mach_latency_hist_seqr::bucket_size            1                      
system.ruby.ST.L1Cache.miss_type_mach_latency_hist_seqr::max_bucket            9                      
system.ruby.ST.L1Cache.miss_type_mach_latency_hist_seqr::samples         9796                      
system.ruby.ST.L1Cache.miss_type_mach_latency_hist_seqr::mean            2                      
system.ruby.ST.L1Cache.miss_type_mach_latency_hist_seqr::gmean     2.000000                      
system.ruby.ST.L1Cache.miss_type_mach_latency_hist_seqr |           0      0.00%      0.00% |           0      0.00%      0.00% |        9796    100.00%    100.00% |           0      0.00%    100.00% |           0      0.00%    100.00% |           0      0.00%    100.00% |           0      0.00%    100.00% |           0      0.00%    100.00% |           0      0.00%    100.00% |           0      0.00%    100.00%
system.ruby.ST.L1Cache.miss_type_mach_latency_hist_seqr::total         9796                      
system.ruby.ST.Directory.hit_type_mach_latency_hist_seqr::bucket_size           64                      
system.ruby.ST.Directory.hit_type_mach_latency_hist_seqr::max_bucket          639                      
system.ruby.ST.Directory.hit_type_mach_latency_hist_seqr::samples          299                      
system.ruby.ST.Directory.hit_type_mach_latency_hist_seqr::mean   211.829431                      
system.ruby.ST.Directory.hit_type_mach_latency_hist_seqr::gmean   209.930484                      
system.ruby.ST.Directory.hit_type_mach_latency_hist_seqr::stdev    39.615954                      
system.ruby.ST.Directory.hit_type_mach_latency_hist_seqr |           0      0.00%      0.00% |           0      0.00%      0.00% |           0      0.00%      0.00% |         291     97.32%     97.32% |           3      1.00%     98.33% |           3      1.00%     99.33% |           0      0.00%     99.33% |           0      0.00%     99.33% |           0      0.00%     99.33% |           2      0.67%    100.00%
system.ruby.ST.Directory.hit_type_mach_latency_hist_seqr::total          299                      
system.ruby.ST.TCP.miss_type_mach_latency_hist_coalsr::bucket_size            1                      
system.ruby.ST.TCP.miss_type_mach_latency_hist_coalsr::max_bucket            9                      
system.ruby.ST.TCP.miss_type_mach_latency_hist_coalsr::samples            8                      
system.ruby.ST.TCP.miss_type_mach_latency_hist_coalsr::mean     1.500000                      
system.ruby.ST.TCP.miss_type_mach_latency_hist_coalsr::gmean     1.414214                      
system.ruby.ST.TCP.miss_type_mach_latency_hist_coalsr::stdev     0.534522                      
system.ruby.ST.TCP.miss_type_mach_latency_hist_coalsr |           0      0.00%      0.00% |           4     50.00%     50.00% |           4     50.00%    100.00% |           0      0.00%    100.00% |           0      0.00%    100.00% |           0      0.00%    100.00% |           0      0.00%    100.00% |           0      0.00%    100.00% |           0      0.00%    100.00% |           0      0.00%    100.00%
system.ruby.ST.TCP.miss_type_mach_latency_hist_coalsr::total            8                      
system.ruby.ST.TCCdir.miss_type_mach_latency_hist_coalsr::bucket_size           32                      
system.ruby.ST.TCCdir.miss_type_mach_latency_hist_coalsr::max_bucket          319                      
system.ruby.ST.TCCdir.miss_type_mach_latency_hist_coalsr::samples            8                      
system.ruby.ST.TCCdir.miss_type_mach_latency_hist_coalsr::mean   248.125000                      
system.ruby.ST.TCCdir.miss_type_mach_latency_hist_coalsr::gmean   248.124780                      
system.ruby.ST.TCCdir.miss_type_mach_latency_hist_coalsr::stdev     0.353553                      
system.ruby.ST.TCCdir.miss_type_mach_latency_hist_coalsr |           0      0.00%      0.00% |           0      0.00%      0.00% |           0      0.00%      0.00% |           0      0.00%      0.00% |           0      0.00%      0.00% |           0      0.00%      0.00% |           0      0.00%      0.00% |           8    100.00%    100.00% |           0      0.00%    100.00% |           0      0.00%    100.00%
system.ruby.ST.TCCdir.miss_type_mach_latency_hist_coalsr::total            8                      
system.ruby.ATOMIC.TCP.miss_type_mach_latency_hist_coalsr::bucket_size            1                      
system.ruby.ATOMIC.TCP.miss_type_mach_latency_hist_coalsr::max_bucket            9                      
system.ruby.ATOMIC.TCP.miss_type_mach_latency_hist_coalsr::samples            1                      
system.ruby.ATOMIC.TCP.miss_type_mach_latency_hist_coalsr::mean            1                      
system.ruby.ATOMIC.TCP.miss_type_mach_latency_hist_coalsr::gmean            1                      
system.ruby.ATOMIC.TCP.miss_type_mach_latency_hist_coalsr::stdev          nan                      
system.ruby.ATOMIC.TCP.miss_type_mach_latency_hist_coalsr |           0      0.00%      0.00% |           1    100.00%    100.00% |           0      0.00%    100.00% |           0      0.00%    100.00% |           0      0.00%    100.00% |           0      0.00%    100.00% |           0      0.00%    100.00% |           0      0.00%    100.00% |           0      0.00%    100.00% |           0      0.00%    100.00%
system.ruby.ATOMIC.TCP.miss_type_mach_latency_hist_coalsr::total            1                      
system.ruby.ATOMIC.TCCdir.miss_type_mach_latency_hist_coalsr::bucket_size           32                      
system.ruby.ATOMIC.TCCdir.miss_type_mach_latency_hist_coalsr::max_bucket          319                      
system.ruby.ATOMIC.TCCdir.miss_type_mach_latency_hist_coalsr::samples            1                      
system.ruby.ATOMIC.TCCdir.miss_type_mach_latency_hist_coalsr::mean          273                      
system.ruby.ATOMIC.TCCdir.miss_type_mach_latency_hist_coalsr::gmean          273                      
system.ruby.ATOMIC.TCCdir.miss_type_mach_latency_hist_coalsr::stdev          nan                      
system.ruby.ATOMIC.TCCdir.miss_type_mach_latency_hist_coalsr |           0      0.00%      0.00% |           0      0.00%      0.00% |           0      0.00%      0.00% |           0      0.00%      0.00% |           0      0.00%      0.00% |           0      0.00%      0.00% |           0      0.00%      0.00% |           0      0.00%      0.00% |           1    100.00%    100.00% |           0      0.00%    100.00%
system.ruby.ATOMIC.TCCdir.miss_type_mach_latency_hist_coalsr::total            1                      
system.ruby.IFETCH.L1Cache.miss_type_mach_latency_hist_seqr::bucket_size            1                      
system.ruby.IFETCH.L1Cache.miss_type_mach_latency_hist_seqr::max_bucket            9                      
system.ruby.IFETCH.L1Cache.miss_type_mach_latency_hist_seqr::samples        77065                      
system.ruby.IFETCH.L1Cache.miss_type_mach_latency_hist_seqr::mean            2                      
system.ruby.IFETCH.L1Cache.miss_type_mach_latency_hist_seqr::gmean     2.000000                      
system.ruby.IFETCH.L1Cache.miss_type_mach_latency_hist_seqr |           0      0.00%      0.00% |           0      0.00%      0.00% |       77065    100.00%    100.00% |           0      0.00%    100.00% |           0      0.00%    100.00% |           0      0.00%    100.00% |           0      0.00%    100.00% |           0      0.00%    100.00% |           0      0.00%    100.00% |           0      0.00%    100.00%
system.ruby.IFETCH.L1Cache.miss_type_mach_latency_hist_seqr::total        77065                      
system.ruby.IFETCH.L2Cache.miss_type_mach_latency_hist_seqr::bucket_size            4                      
system.ruby.IFETCH.L2Cache.miss_type_mach_latency_hist_seqr::max_bucket           39                      
system.ruby.IFETCH.L2Cache.miss_type_mach_latency_hist_seqr::samples           49                      
system.ruby.IFETCH.L2Cache.miss_type_mach_latency_hist_seqr::mean           20                      
system.ruby.IFETCH.L2Cache.miss_type_mach_latency_hist_seqr::gmean    20.000000                      
system.ruby.IFETCH.L2Cache.miss_type_mach_latency_hist_seqr |           0      0.00%      0.00% |           0      0.00%      0.00% |           0      0.00%      0.00% |           0      0.00%      0.00% |           0      0.00%      0.00% |          49    100.00%    100.00% |           0      0.00%    100.00% |           0      0.00%    100.00% |           0      0.00%    100.00% |           0      0.00%    100.00%
system.ruby.IFETCH.L2Cache.miss_type_mach_latency_hist_seqr::total           49                      
system.ruby.IFETCH.Directory.hit_type_mach_latency_hist_seqr::bucket_size           64                      
system.ruby.IFETCH.Directory.hit_type_mach_latency_hist_seqr::max_bucket          639                      
system.ruby.IFETCH.Directory.hit_type_mach_latency_hist_seqr::samples          948                      
system.ruby.IFETCH.Directory.hit_type_mach_latency_hist_seqr::mean   210.354430                      
system.ruby.IFETCH.Directory.hit_type_mach_latency_hist_seqr::gmean   208.975316                      
system.ruby.IFETCH.Directory.hit_type_mach_latency_hist_seqr::stdev    33.191851                      
system.ruby.IFETCH.Directory.hit_type_mach_latency_hist_seqr |           0      0.00%      0.00% |           0      0.00%      0.00% |           0      0.00%      0.00% |         926     97.68%     97.68% |           8      0.84%     98.52% |           8      0.84%     99.37% |           2      0.21%     99.58% |           0      0.00%     99.58% |           0      0.00%     99.58% |           4      0.42%    100.00%
system.ruby.IFETCH.Directory.hit_type_mach_latency_hist_seqr::total          948                      
system.ruby.RMW_Read.L1Cache.miss_type_mach_latency_hist_seqr::bucket_size            1                      
system.ruby.RMW_Read.L1Cache.miss_type_mach_latency_hist_seqr::max_bucket            9                      
system.ruby.RMW_Read.L1Cache.miss_type_mach_latency_hist_seqr::samples          269                      
system.ruby.RMW_Read.L1Cache.miss_type_mach_latency_hist_seqr::mean            2                      
system.ruby.RMW_Read.L1Cache.miss_type_mach_latency_hist_seqr::gmean     2.000000                      
system.ruby.RMW_Read.L1Cache.miss_type_mach_latency_hist_seqr |           0      0.00%      0.00% |           0      0.00%      0.00% |         269    100.00%    100.00% |           0      0.00%    100.00% |           0      0.00%    100.00% |           0      0.00%    100.00% |           0      0.00%    100.00% |           0      0.00%    100.00% |           0      0.00%    100.00% |           0      0.00%    100.00%
system.ruby.RMW_Read.L1Cache.miss_type_mach_latency_hist_seqr::total          269                      
system.ruby.RMW_Read.Directory.hit_type_mach_latency_hist_seqr::bucket_size           32                      
system.ruby.RMW_Read.Directory.hit_type_mach_latency_hist_seqr::max_bucket          319                      
system.ruby.RMW_Read.Directory.hit_type_mach_latency_hist_seqr::samples            2                      
system.ruby.RMW_Read.Directory.hit_type_mach_latency_hist_seqr::mean          206                      
system.ruby.RMW_Read.Directory.hit_type_mach_latency_hist_seqr::gmean   206.000000                      
system.ruby.RMW_Read.Directory.hit_type_mach_latency_hist_seqr |           0      0.00%      0.00% |           0      0.00%      0.00% |           0      0.00%      0.00% |           0      0.00%      0.00% |           0      0.00%      0.00% |           0      0.00%      0.00% |           2    100.00%    100.00% |           0      0.00%    100.00% |           0      0.00%    100.00% |           0      0.00%    100.00%
system.ruby.RMW_Read.Directory.hit_type_mach_latency_hist_seqr::total            2                      
system.ruby.Locked_RMW_Read.L1Cache.miss_type_mach_latency_hist_seqr::bucket_size            1                      
system.ruby.Locked_RMW_Read.L1Cache.miss_type_mach_latency_hist_seqr::max_bucket            9                      
system.ruby.Locked_RMW_Read.L1Cache.miss_type_mach_latency_hist_seqr::samples           10                      
system.ruby.Locked_RMW_Read.L1Cache.miss_type_mach_latency_hist_seqr::mean            2                      
system.ruby.Locked_RMW_Read.L1Cache.miss_type_mach_latency_hist_seqr::gmean            2                      
system.ruby.Locked_RMW_Read.L1Cache.miss_type_mach_latency_hist_seqr |           0      0.00%      0.00% |           0      0.00%      0.00% |          10    100.00%    100.00% |           0      0.00%    100.00% |           0      0.00%    100.00% |           0      0.00%    100.00% |           0      0.00%    100.00% |           0      0.00%    100.00% |           0      0.00%    100.00% |           0      0.00%    100.00%
system.ruby.Locked_RMW_Read.L1Cache.miss_type_mach_latency_hist_seqr::total           10                      
system.ruby.Locked_RMW_Write.L1Cache.miss_type_mach_latency_hist_seqr::bucket_size            1                      
system.ruby.Locked_RMW_Write.L1Cache.miss_type_mach_latency_hist_seqr::max_bucket            9                      
system.ruby.Locked_RMW_Write.L1Cache.miss_type_mach_latency_hist_seqr::samples           10                      
system.ruby.Locked_RMW_Write.L1Cache.miss_type_mach_latency_hist_seqr::mean            2                      
system.ruby.Locked_RMW_Write.L1Cache.miss_type_mach_latency_hist_seqr::gmean            2                      
system.ruby.Locked_RMW_Write.L1Cache.miss_type_mach_latency_hist_seqr |           0      0.00%      0.00% |           0      0.00%      0.00% |          10    100.00%    100.00% |           0      0.00%    100.00% |           0      0.00%    100.00% |           0      0.00%    100.00% |           0      0.00%    100.00% |           0      0.00%    100.00% |           0      0.00%    100.00% |           0      0.00%    100.00%
system.ruby.Locked_RMW_Write.L1Cache.miss_type_mach_latency_hist_seqr::total           10                      
system.ruby.SQC_Controller.Fetch                   70      0.00%      0.00%
system.ruby.SQC_Controller.TCC_AckS                 3      0.00%      0.00%
system.ruby.SQC_Controller.I.Fetch                  3      0.00%      0.00%
system.ruby.SQC_Controller.S.Fetch                 67      0.00%      0.00%
system.ruby.SQC_Controller.I_S.TCC_AckS             3      0.00%      0.00%
system.ruby.TCCdir_Controller.RdBlk                 2      0.00%      0.00%
system.ruby.TCCdir_Controller.RdBlkM                9      0.00%      0.00%
system.ruby.TCCdir_Controller.RdBlkS                3      0.00%      0.00%
system.ruby.TCCdir_Controller.CPUPrbResp           10      0.00%      0.00%
system.ruby.TCCdir_Controller.ProbeAcksComplete           10      0.00%      0.00%
system.ruby.TCCdir_Controller.CoreUnblock           14      0.00%      0.00%
system.ruby.TCCdir_Controller.NB_AckS               5      0.00%      0.00%
system.ruby.TCCdir_Controller.NB_AckM               9      0.00%      0.00%
system.ruby.TCCdir_Controller.PrbInvData          301      0.00%      0.00%
system.ruby.TCCdir_Controller.PrbShrData         1136      0.00%      0.00%
system.ruby.TCCdir_Controller.I.RdBlk               2      0.00%      0.00%
system.ruby.TCCdir_Controller.I.RdBlkM              9      0.00%      0.00%
system.ruby.TCCdir_Controller.I.RdBlkS              3      0.00%      0.00%
system.ruby.TCCdir_Controller.I.PrbInvData          300      0.00%      0.00%
system.ruby.TCCdir_Controller.I.PrbShrData         1127      0.00%      0.00%
system.ruby.TCCdir_Controller.S.PrbInvData            1      0.00%      0.00%
system.ruby.TCCdir_Controller.M.PrbShrData            9      0.00%      0.00%
system.ruby.TCCdir_Controller.CP_I.CPUPrbResp            1      0.00%      0.00%
system.ruby.TCCdir_Controller.CP_I.ProbeAcksComplete            1      0.00%      0.00%
system.ruby.TCCdir_Controller.CP_O.CPUPrbResp            9      0.00%      0.00%
system.ruby.TCCdir_Controller.CP_O.ProbeAcksComplete            9      0.00%      0.00%
system.ruby.TCCdir_Controller.I_M.NB_AckM            9      0.00%      0.00%
system.ruby.TCCdir_Controller.I_ES.NB_AckS            2      0.00%      0.00%
system.ruby.TCCdir_Controller.I_S.NB_AckS            3      0.00%      0.00%
system.ruby.TCCdir_Controller.BBB_S.CoreUnblock            5      0.00%      0.00%
system.ruby.TCCdir_Controller.BBB_M.CoreUnblock            9      0.00%      0.00%
system.ruby.TCP_Controller.Load                    13      0.00%      0.00%
system.ruby.TCP_Controller.Store                   18      0.00%      0.00%
system.ruby.TCP_Controller.TCC_AckS                 2      0.00%      0.00%
system.ruby.TCP_Controller.TCC_AckM                 9      0.00%      0.00%
system.ruby.TCP_Controller.PrbInvData               1      0.00%      0.00%
system.ruby.TCP_Controller.PrbShrData               9      0.00%      0.00%
system.ruby.TCP_Controller.I.Load                   2      0.00%      0.00%
system.ruby.TCP_Controller.I.Store                  9      0.00%      0.00%
system.ruby.TCP_Controller.S.Load                  11      0.00%      0.00%
system.ruby.TCP_Controller.S.PrbInvData             1      0.00%      0.00%
system.ruby.TCP_Controller.M.Store                  9      0.00%      0.00%
system.ruby.TCP_Controller.M.PrbShrData             9      0.00%      0.00%
system.ruby.TCP_Controller.I_M.TCC_AckM             9      0.00%      0.00%
system.ruby.TCP_Controller.I_ES.TCC_AckS            2      0.00%      0.00%

---------- End Simulation Statistics   ----------
